1000.0 300.0  0.0
   0.0 300.0  0.0 8.0 0.0
 750.0 300.0  0.0 8.0 0.0
 850.0 308.0  0.0 8.0 0.0
2000.0 311.45 0.0 8.0 0.0
